
Version,
  8.9;                                    !- Version Identifier

Timestep,
  6;                                      !- Number of Timesteps per Hour

LifeCycleCost:Parameters,
  {17519a70-e491-40f1-b64a-944fb6e29a1d}, !- Name
  EndOfYear,                              !- Discounting Convention
  ConstantDollar,                         !- Inflation Approach
  0.03,                                   !- Real Discount Rate
  ,                                       !- Nominal Discount Rate
  ,                                       !- Inflation
  ,                                       !- Base Date Month
  2011,                                   !- Base Date Year
  ,                                       !- Service Date Month
  2011,                                   !- Service Date Year
  25,                                     !- Length of Study Period in Years
  ,                                       !- Tax rate
  None;                                   !- Depreciation Method

LifeCycleCost:UsePriceEscalation,
  U.S. Avg  Commercial-Electricity,       !- LCC Price Escalation Name
  Electricity,                            !- Resource
  2011,                                   !- Escalation Start Year
  January,                                !- Escalation Start Month
  0.9838,                                 !- Year Escalation 1
  0.9730,                                 !- Year Escalation 2
  0.9632,                                 !- Year Escalation 3
  0.9611,                                 !- Year Escalation 4
  0.9571,                                 !- Year Escalation 5
  0.9553,                                 !- Year Escalation 6
  0.9539,                                 !- Year Escalation 7
  0.9521,                                 !- Year Escalation 8
  0.9546,                                 !- Year Escalation 9
  0.9550,                                 !- Year Escalation 10
  0.9553,                                 !- Year Escalation 11
  0.9564,                                 !- Year Escalation 12
  0.9575,                                 !- Year Escalation 13
  0.9596,                                 !- Year Escalation 14
  0.9618,                                 !- Year Escalation 15
  0.9614,                                 !- Year Escalation 16
  0.9618,                                 !- Year Escalation 17
  0.9618,                                 !- Year Escalation 18
  0.9593,                                 !- Year Escalation 19
  0.9589,                                 !- Year Escalation 20
  0.9607,                                 !- Year Escalation 21
  0.9625,                                 !- Year Escalation 22
  0.9650,                                 !- Year Escalation 23
  0.9708,                                 !- Year Escalation 24
  0.9751,                                 !- Year Escalation 25
  0.9762,                                 !- Year Escalation 26
  0.9766,                                 !- Year Escalation 27
  0.9766,                                 !- Year Escalation 28
  0.9769,                                 !- Year Escalation 29
  0.9773;                                 !- Year Escalation 30

LifeCycleCost:UsePriceEscalation,
  U.S. Avg  Commercial-Distillate Oil,    !- LCC Price Escalation Name
  FuelOil#1,                              !- Resource
  2011,                                   !- Escalation Start Year
  January,                                !- Escalation Start Month
  0.9714,                                 !- Year Escalation 1
  0.9730,                                 !- Year Escalation 2
  0.9942,                                 !- Year Escalation 3
  1.0164,                                 !- Year Escalation 4
  1.0541,                                 !- Year Escalation 5
  1.0928,                                 !- Year Escalation 6
  1.1267,                                 !- Year Escalation 7
  1.1580,                                 !- Year Escalation 8
  1.1792,                                 !- Year Escalation 9
  1.1967,                                 !- Year Escalation 10
  1.2200,                                 !- Year Escalation 11
  1.2333,                                 !- Year Escalation 12
  1.2566,                                 !- Year Escalation 13
  1.2709,                                 !- Year Escalation 14
  1.2826,                                 !- Year Escalation 15
  1.2985,                                 !- Year Escalation 16
  1.3102,                                 !- Year Escalation 17
  1.3250,                                 !- Year Escalation 18
  1.3261,                                 !- Year Escalation 19
  1.3282,                                 !- Year Escalation 20
  1.3324,                                 !- Year Escalation 21
  1.3356,                                 !- Year Escalation 22
  1.3431,                                 !- Year Escalation 23
  1.3510,                                 !- Year Escalation 24
  1.3568,                                 !- Year Escalation 25
  1.3606,                                 !- Year Escalation 26
  1.3637,                                 !- Year Escalation 27
  1.3674,                                 !- Year Escalation 28
  1.3706,                                 !- Year Escalation 29
  1.3743;                                 !- Year Escalation 30

LifeCycleCost:UsePriceEscalation,
  U.S. Avg  Commercial-Residual Oil,      !- LCC Price Escalation Name
  FuelOil#2,                              !- Resource
  2011,                                   !- Escalation Start Year
  January,                                !- Escalation Start Month
  0.8469,                                 !- Year Escalation 1
  0.8257,                                 !- Year Escalation 2
  0.8681,                                 !- Year Escalation 3
  0.8988,                                 !- Year Escalation 4
  0.9289,                                 !- Year Escalation 5
  0.9604,                                 !- Year Escalation 6
  0.9897,                                 !- Year Escalation 7
  1.0075,                                 !- Year Escalation 8
  1.0314,                                 !- Year Escalation 9
  1.0554,                                 !- Year Escalation 10
  1.0861,                                 !- Year Escalation 11
  1.1278,                                 !- Year Escalation 12
  1.1497,                                 !- Year Escalation 13
  1.1620,                                 !- Year Escalation 14
  1.1743,                                 !- Year Escalation 15
  1.1852,                                 !- Year Escalation 16
  1.1948,                                 !- Year Escalation 17
  1.2037,                                 !- Year Escalation 18
  1.2071,                                 !- Year Escalation 19
  1.2119,                                 !- Year Escalation 20
  1.2139,                                 !- Year Escalation 21
  1.2194,                                 !- Year Escalation 22
  1.2276,                                 !- Year Escalation 23
  1.2365,                                 !- Year Escalation 24
  1.2420,                                 !- Year Escalation 25
  1.2461,                                 !- Year Escalation 26
  1.2509,                                 !- Year Escalation 27
  1.2550,                                 !- Year Escalation 28
  1.2591,                                 !- Year Escalation 29
  1.2638;                                 !- Year Escalation 30

LifeCycleCost:UsePriceEscalation,
  U.S. Avg  Commercial-Natural gas,       !- LCC Price Escalation Name
  NaturalGas,                             !- Resource
  2011,                                   !- Escalation Start Year
  January,                                !- Escalation Start Month
  0.9823,                                 !- Year Escalation 1
  0.9557,                                 !- Year Escalation 2
  0.9279,                                 !- Year Escalation 3
  0.9257,                                 !- Year Escalation 4
  0.9346,                                 !- Year Escalation 5
  0.9412,                                 !- Year Escalation 6
  0.9512,                                 !- Year Escalation 7
  0.9645,                                 !- Year Escalation 8
  0.9856,                                 !- Year Escalation 9
  1.0067,                                 !- Year Escalation 10
  1.0222,                                 !- Year Escalation 11
  1.0410,                                 !- Year Escalation 12
  1.0610,                                 !- Year Escalation 13
  1.0787,                                 !- Year Escalation 14
  1.0942,                                 !- Year Escalation 15
  1.1098,                                 !- Year Escalation 16
  1.1220,                                 !- Year Escalation 17
  1.1308,                                 !- Year Escalation 18
  1.1386,                                 !- Year Escalation 19
  1.1486,                                 !- Year Escalation 20
  1.1619,                                 !- Year Escalation 21
  1.1763,                                 !- Year Escalation 22
  1.1918,                                 !- Year Escalation 23
  1.2118,                                 !- Year Escalation 24
  1.2284,                                 !- Year Escalation 25
  1.2439,                                 !- Year Escalation 26
  1.2605,                                 !- Year Escalation 27
  1.2772,                                 !- Year Escalation 28
  1.2938,                                 !- Year Escalation 29
  1.3115;                                 !- Year Escalation 30

LifeCycleCost:UsePriceEscalation,
  U.S. Avg  Commercial-Coal,              !- LCC Price Escalation Name
  Coal,                                   !- Resource
  2011,                                   !- Escalation Start Year
  January,                                !- Escalation Start Month
  0.9970,                                 !- Year Escalation 1
  1.0089,                                 !- Year Escalation 2
  1.0089,                                 !- Year Escalation 3
  0.9941,                                 !- Year Escalation 4
  0.9941,                                 !- Year Escalation 5
  1.0000,                                 !- Year Escalation 6
  1.0030,                                 !- Year Escalation 7
  1.0059,                                 !- Year Escalation 8
  1.0089,                                 !- Year Escalation 9
  1.0119,                                 !- Year Escalation 10
  1.0148,                                 !- Year Escalation 11
  1.0178,                                 !- Year Escalation 12
  1.0208,                                 !- Year Escalation 13
  1.0267,                                 !- Year Escalation 14
  1.0297,                                 !- Year Escalation 15
  1.0356,                                 !- Year Escalation 16
  1.0415,                                 !- Year Escalation 17
  1.0534,                                 !- Year Escalation 18
  1.0564,                                 !- Year Escalation 19
  1.0593,                                 !- Year Escalation 20
  1.0653,                                 !- Year Escalation 21
  1.0712,                                 !- Year Escalation 22
  1.0742,                                 !- Year Escalation 23
  1.0801,                                 !- Year Escalation 24
  1.0831,                                 !- Year Escalation 25
  1.0831,                                 !- Year Escalation 26
  1.0861,                                 !- Year Escalation 27
  1.0890,                                 !- Year Escalation 28
  1.0920,                                 !- Year Escalation 29
  1.0950;                                 !- Year Escalation 30

Building,
  RKF,                                    !- Name
  0,                                      !- North Axis {deg}
  ,                                       !- Terrain
  ,                                       !- Loads Convergence Tolerance Value
  ,                                       !- Temperature Convergence Tolerance Value {deltaC}
  ,                                       !- Solar Distribution
  ,                                       !- Maximum Number of Warmup Days
  ;                                       !- Minimum Number of Warmup Days

Shading:Building:Detailed,
  Shading Surface 1,                      !- Name
  ,                                       !- Transmittance Schedule Name
  ,                                       !- Number of Vertices
  24.7470514209327, -8.47553776194518, 16, !- X,Y,Z Vertex 1 {m}
  24.7470514209327, -8.47553776194518, 0, !- X,Y,Z Vertex 2 {m}
  24.5583877715489, -25.0844662652352, 0, !- X,Y,Z Vertex 3 {m}
  24.5583877715489, -25.0844662652352, 16; !- X,Y,Z Vertex 4 {m}

Shading:Building:Detailed,
  Shading Surface 2,                      !- Name
  ,                                       !- Transmittance Schedule Name
  ,                                       !- Number of Vertices
  17.4379941882025, -48.0055803605676, 16, !- X,Y,Z Vertex 1 {m}
  17.4379941882025, -48.0055803605676, 0, !- X,Y,Z Vertex 2 {m}
  -0.252005811797593, -48.0055803605675, 0, !- X,Y,Z Vertex 3 {m}
  -0.252005811797593, -48.0055803605675, 16; !- X,Y,Z Vertex 4 {m}

Shading:Building:Detailed,
  Shading Surface 3,                      !- Name
  ,                                       !- Transmittance Schedule Name
  ,                                       !- Number of Vertices
  -24.9909198978008, -24.7178982822827, 16, !- X,Y,Z Vertex 1 {m}
  -24.9909198978008, -24.7178982822827, 0, !- X,Y,Z Vertex 2 {m}
  -24.990919897806, 0.282101717717358, 0, !- X,Y,Z Vertex 3 {m}
  -24.990919897806, 0.282101717717358, 16; !- X,Y,Z Vertex 4 {m}

Shading:Building:Detailed,
  Shading Surface 4,                      !- Name
  ,                                       !- Transmittance Schedule Name
  ,                                       !- Number of Vertices
  0.166289713572631, 14.3991670731051, 16, !- X,Y,Z Vertex 1 {m}
  0.166289713572631, 14.3991670731051, 0, !- X,Y,Z Vertex 2 {m}
  18.3151345012607, 14.1943918978336, 0,  !- X,Y,Z Vertex 3 {m}
  18.3151345012607, 14.1943918978336, 16; !- X,Y,Z Vertex 4 {m}

Zone,
  Thermal Co-working,                     !- Name
  90,                                     !- Direction of Relative North {deg}
  11.114276746211,                        !- X Origin {m}
  -8.06538003370837,                      !- Y Origin {m}
  0,                                      !- Z Origin {m}
  ,                                       !- Type
  ,                                       !- Multiplier
  ,                                       !- Ceiling Height {m}
  ,                                       !- Volume {m3}
  ,                                       !- Floor Area {m2}
  ,                                       !- Zone Inside Convection Algorithm
  ;                                       !- Zone Outside Convection Algorithm

BuildingSurface:Detailed,
  Surface 101,                            !- Name
  Floor,                                  !- Surface Type
  ExtSlabCarpet 4in ClimateZone 1-8,      !- Construction Name
  Thermal Co-working,                     !- Zone Name
  Ground,                                 !- Outside Boundary Condition
  ,                                       !- Outside Boundary Condition Object
  NoSun,                                  !- Sun Exposure
  NoWind,                                 !- Wind Exposure
  ,                                       !- View Factor to Ground
  ,                                       !- Number of Vertices
  -0.989685866575494, 9.32796406297143, 0, !- X,Y,Z Vertex 1 {m}
  0.334162003356442, 8.01291978411764, 0, !- X,Y,Z Vertex 2 {m}
  0.334162003356443, 7.03321215445652, 0, !- X,Y,Z Vertex 3 {m}
  0.168720955021853, 7.03321215445652, 0, !- X,Y,Z Vertex 4 {m}
  0.168720955021852, 6.96059286921966, 0, !- X,Y,Z Vertex 5 {m}
  0, 6.96059286921966, 0,                 !- X,Y,Z Vertex 6 {m}
  0, 0, 0,                                !- X,Y,Z Vertex 7 {m}
  -7.52456350855034, 0, 0,                !- X,Y,Z Vertex 8 {m}
  -7.52456350855033, 0.418624945143292, 0, !- X,Y,Z Vertex 9 {m}
  -7.40165262840136, 0.418624945143292, 0, !- X,Y,Z Vertex 10 {m}
  -7.40165262840136, 7.03321215445652, 0, !- X,Y,Z Vertex 11 {m}
  -4.23275327140132, 7.03321215445652, 0, !- X,Y,Z Vertex 12 {m}
  -4.23275327140132, 8.01291978411764, 0, !- X,Y,Z Vertex 13 {m}
  -2.91214524400277, 9.32796406297138, 0; !- X,Y,Z Vertex 14 {m}

BuildingSurface:Detailed,
  Surface 102,                            !- Name
  Wall,                                   !- Surface Type
  Interior Wall,                          !- Construction Name
  Thermal Co-working,                     !- Zone Name
  Surface,                                !- Outside Boundary Condition
  Surface 68,                             !- Outside Boundary Condition Object
  NoSun,                                  !- Sun Exposure
  NoWind,                                 !- Wind Exposure
  ,                                       !- View Factor to Ground
  ,                                       !- Number of Vertices
  -2.76780812018605, -2.16573425859679e-014, 4, !- X,Y,Z Vertex 1 {m}
  -2.76780812018605, -2.16573425859679e-014, 0, !- X,Y,Z Vertex 2 {m}
  5.51881709687466e-044, -7.05304758140002e-030, 0, !- X,Y,Z Vertex 3 {m}
  5.51881709687466e-044, -7.05304758140002e-030, 4; !- X,Y,Z Vertex 4 {m}

FenestrationSurface:Detailed,
  Sub Surface 18,                         !- Name
  Door,                                   !- Surface Type
  Interior Door,                          !- Construction Name
  Surface 102,                            !- Building Surface Name
  Sub Surface 26,                         !- Outside Boundary Condition Object
  ,                                       !- View Factor to Ground
  ,                                       !- Shading Control Name
  ,                                       !- Frame and Divider Name
  ,                                       !- Multiplier
  ,                                       !- Number of Vertices
  -2.49280812018604, 0, 2.06,             !- X,Y,Z Vertex 1 {m}
  -2.49280812018604, 0, 0,                !- X,Y,Z Vertex 2 {m}
  -1.61280812018604, 0, 0,                !- X,Y,Z Vertex 3 {m}
  -1.61280812018604, 0, 2.06;             !- X,Y,Z Vertex 4 {m}

BuildingSurface:Detailed,
  Surface 104,                            !- Name
  Wall,                                   !- Surface Type
  ASHRAE 189.1-2009 ExtWall Mass ClimateZone 5, !- Construction Name
  Thermal Co-working,                     !- Zone Name
  Outdoors,                               !- Outside Boundary Condition
  ,                                       !- Outside Boundary Condition Object
  SunExposed,                             !- Sun Exposure
  WindExposed,                            !- Wind Exposure
  ,                                       !- View Factor to Ground
  ,                                       !- Number of Vertices
  -7.52456350855033, 0.418624945143292, 4, !- X,Y,Z Vertex 1 {m}
  -7.52456350855033, 0.418624945143292, 0, !- X,Y,Z Vertex 2 {m}
  -7.52456350855034, 2.09147174388792e-028, 0, !- X,Y,Z Vertex 3 {m}
  -7.52456350855034, 2.09147174388792e-028, 4; !- X,Y,Z Vertex 4 {m}

BuildingSurface:Detailed,
  Surface 105,                            !- Name
  Wall,                                   !- Surface Type
  ASHRAE 189.1-2009 ExtWall Mass ClimateZone 5, !- Construction Name
  Thermal Co-working,                     !- Zone Name
  Outdoors,                               !- Outside Boundary Condition
  ,                                       !- Outside Boundary Condition Object
  SunExposed,                             !- Sun Exposure
  WindExposed,                            !- Wind Exposure
  ,                                       !- View Factor to Ground
  ,                                       !- Number of Vertices
  -7.40165262840136, 0.418624945143292, 4, !- X,Y,Z Vertex 1 {m}
  -7.40165262840136, 0.418624945143292, 0, !- X,Y,Z Vertex 2 {m}
  -7.52456350855033, 0.418624945143292, 0, !- X,Y,Z Vertex 3 {m}
  -7.52456350855033, 0.418624945143292, 4; !- X,Y,Z Vertex 4 {m}

BuildingSurface:Detailed,
  Surface 106,                            !- Name
  Wall,                                   !- Surface Type
  ASHRAE 189.1-2009 ExtWall Mass ClimateZone 5, !- Construction Name
  Thermal Co-working,                     !- Zone Name
  Outdoors,                               !- Outside Boundary Condition
  ,                                       !- Outside Boundary Condition Object
  SunExposed,                             !- Sun Exposure
  WindExposed,                            !- Wind Exposure
  ,                                       !- View Factor to Ground
  ,                                       !- Number of Vertices
  -7.40165262840136, 7.03321215445652, 4, !- X,Y,Z Vertex 1 {m}
  -7.40165262840136, 7.03321215445652, 0, !- X,Y,Z Vertex 2 {m}
  -7.40165262840136, 0.418624945143292, 0, !- X,Y,Z Vertex 3 {m}
  -7.40165262840136, 0.418624945143292, 4; !- X,Y,Z Vertex 4 {m}

FenestrationSurface:Detailed,
  Sub Surface 20,                         !- Name
  Window,                                 !- Surface Type
  ASHRAE 189.1-2009 ExtWindow ClimateZone 4-5, !- Construction Name
  Surface 106,                            !- Building Surface Name
  ,                                       !- Outside Boundary Condition Object
  ,                                       !- View Factor to Ground
  Shading Control North,                  !- Shading Control Name
  ,                                       !- Frame and Divider Name
  ,                                       !- Multiplier
  ,                                       !- Number of Vertices
  -7.40165262840136, 5.17839662729079, 2.9, !- X,Y,Z Vertex 1 {m}
  -7.40165262840136, 5.17839662729079, 0.77, !- X,Y,Z Vertex 2 {m}
  -7.40165262840136, 3.83839708957831, 0.77, !- X,Y,Z Vertex 3 {m}
  -7.40165262840136, 3.83839708957831, 2.9; !- X,Y,Z Vertex 4 {m}

FenestrationSurface:Detailed,
  Sub Surface 21,                         !- Name
  Window,                                 !- Surface Type
  ASHRAE 189.1-2009 ExtWindow ClimateZone 4-5, !- Construction Name
  Surface 106,                            !- Building Surface Name
  ,                                       !- Outside Boundary Condition Object
  ,                                       !- View Factor to Ground
  Shading Control North,                  !- Shading Control Name
  ,                                       !- Frame and Divider Name
  ,                                       !- Multiplier
  ,                                       !- Number of Vertices
  -7.40165262840136, 2.81839753892183, 2.99, !- X,Y,Z Vertex 1 {m}
  -7.40165262840136, 2.81839753892183, 0.77, !- X,Y,Z Vertex 2 {m}
  -7.40165262840136, 1.47839800120937, 0.77, !- X,Y,Z Vertex 3 {m}
  -7.40165262840136, 1.47839800120937, 2.99; !- X,Y,Z Vertex 4 {m}

BuildingSurface:Detailed,
  Surface 107,                            !- Name
  Wall,                                   !- Surface Type
  ASHRAE 189.1-2009 ExtWall Mass ClimateZone 5, !- Construction Name
  Thermal Co-working,                     !- Zone Name
  Outdoors,                               !- Outside Boundary Condition
  ,                                       !- Outside Boundary Condition Object
  SunExposed,                             !- Sun Exposure
  WindExposed,                            !- Wind Exposure
  ,                                       !- View Factor to Ground
  ,                                       !- Number of Vertices
  -4.23275327140132, 7.03321215445652, 4, !- X,Y,Z Vertex 1 {m}
  -4.23275327140132, 7.03321215445652, 0, !- X,Y,Z Vertex 2 {m}
  -7.40165262840136, 7.03321215445652, 0, !- X,Y,Z Vertex 3 {m}
  -7.40165262840136, 7.03321215445652, 4; !- X,Y,Z Vertex 4 {m}

BuildingSurface:Detailed,
  Surface 108,                            !- Name
  Wall,                                   !- Surface Type
  ASHRAE 189.1-2009 ExtWall Mass ClimateZone 5, !- Construction Name
  Thermal Co-working,                     !- Zone Name
  Outdoors,                               !- Outside Boundary Condition
  ,                                       !- Outside Boundary Condition Object
  SunExposed,                             !- Sun Exposure
  WindExposed,                            !- Wind Exposure
  ,                                       !- View Factor to Ground
  ,                                       !- Number of Vertices
  -4.23275327140132, 8.01291978411764, 4, !- X,Y,Z Vertex 1 {m}
  -4.23275327140132, 8.01291978411764, 0, !- X,Y,Z Vertex 2 {m}
  -4.23275327140132, 7.03321215445652, 0, !- X,Y,Z Vertex 3 {m}
  -4.23275327140132, 7.03321215445652, 4; !- X,Y,Z Vertex 4 {m}

BuildingSurface:Detailed,
  Surface 109,                            !- Name
  Wall,                                   !- Surface Type
  ASHRAE 189.1-2009 ExtWall Mass ClimateZone 5, !- Construction Name
  Thermal Co-working,                     !- Zone Name
  Outdoors,                               !- Outside Boundary Condition
  ,                                       !- Outside Boundary Condition Object
  SunExposed,                             !- Sun Exposure
  WindExposed,                            !- Wind Exposure
  ,                                       !- View Factor to Ground
  ,                                       !- Number of Vertices
  -2.91214524400277, 9.32796406297138, 4, !- X,Y,Z Vertex 1 {m}
  -2.91214524400277, 9.32796406297138, 0, !- X,Y,Z Vertex 2 {m}
  -4.23275327140132, 8.01291978411764, 0, !- X,Y,Z Vertex 3 {m}
  -4.23275327140132, 8.01291978411764, 4; !- X,Y,Z Vertex 4 {m}

FenestrationSurface:Detailed,
  Sub Surface 19,                         !- Name
  Window,                                 !- Surface Type
  ASHRAE 189.1-2009 ExtWindow ClimateZone 4-5, !- Construction Name
  Surface 109,                            !- Building Surface Name
  ,                                       !- Outside Boundary Condition Object
  ,                                       !- View Factor to Ground
  Shading Control East,                   !- Shading Control Name
  ,                                       !- Frame and Divider Name
  ,                                       !- Multiplier
  ,                                       !- Number of Vertices
  -3.24536596154269, 8.99614721110837, 3.33, !- X,Y,Z Vertex 1 {m}
  -3.24536596154269, 8.99614721110837, 0.75, !- X,Y,Z Vertex 2 {m}
  -3.91853394217963, 8.32581530089882, 0.75, !- X,Y,Z Vertex 3 {m}
  -3.91853394217963, 8.32581530089882, 3.33; !- X,Y,Z Vertex 4 {m}

BuildingSurface:Detailed,
  Surface 110,                            !- Name
  Wall,                                   !- Surface Type
  ASHRAE 189.1-2009 ExtWall Mass ClimateZone 5, !- Construction Name
  Thermal Co-working,                     !- Zone Name
  Outdoors,                               !- Outside Boundary Condition
  ,                                       !- Outside Boundary Condition Object
  SunExposed,                             !- Sun Exposure
  WindExposed,                            !- Wind Exposure
  ,                                       !- View Factor to Ground
  ,                                       !- Number of Vertices
  -0.989685866575494, 9.32796406297143, 4, !- X,Y,Z Vertex 1 {m}
  -0.989685866575494, 9.32796406297143, 0, !- X,Y,Z Vertex 2 {m}
  -2.91214524400277, 9.32796406297138, 0, !- X,Y,Z Vertex 3 {m}
  -2.91214524400277, 9.32796406297138, 4; !- X,Y,Z Vertex 4 {m}

FenestrationSurface:Detailed,
  Sub Surface 17,                         !- Name
  Window,                                 !- Surface Type
  ASHRAE 189.1-2009 ExtWindow ClimateZone 4-5, !- Construction Name
  Surface 110,                            !- Building Surface Name
  ,                                       !- Outside Boundary Condition Object
  ,                                       !- View Factor to Ground
  Shading Control East,                   !- Shading Control Name
  ,                                       !- Frame and Divider Name
  ,                                       !- Multiplier
  ,                                       !- Number of Vertices
  -1.47591580971261, 9.32796406297146, 3.33, !- X,Y,Z Vertex 1 {m}
  -1.47591580971261, 9.32796406297146, 0.75, !- X,Y,Z Vertex 2 {m}
  -2.42591580971261, 9.32796406297146, 0.75, !- X,Y,Z Vertex 3 {m}
  -2.42591580971261, 9.32796406297146, 3.33; !- X,Y,Z Vertex 4 {m}

BuildingSurface:Detailed,
  Surface 111,                            !- Name
  Wall,                                   !- Surface Type
  ASHRAE 189.1-2009 ExtWall Mass ClimateZone 5, !- Construction Name
  Thermal Co-working,                     !- Zone Name
  Outdoors,                               !- Outside Boundary Condition
  ,                                       !- Outside Boundary Condition Object
  SunExposed,                             !- Sun Exposure
  WindExposed,                            !- Wind Exposure
  ,                                       !- View Factor to Ground
  ,                                       !- Number of Vertices
  0.33416200335644, 8.01291978411764, 4,  !- X,Y,Z Vertex 1 {m}
  0.334162003356441, 8.01291978411764, 1.95907991037849e-031, !- X,Y,Z Vertex 2 {m}
  -0.989685866575491, 9.32796406297143, 1.31538222553985e-030, !- X,Y,Z Vertex 3 {m}
  -0.989685866575492, 9.32796406297143, 4; !- X,Y,Z Vertex 4 {m}

FenestrationSurface:Detailed,
  Sub Surface 16,                         !- Name
  Window,                                 !- Surface Type